data_TB-COF
_audit_creation_date              0000-00-00
_audit_creation_method            'LanYouShi'
_symmetry_space_group_name_H-M    'P1'
_cell_length_a                    15.0200005
_cell_length_b                    15.0200005
_cell_length_c                    3.4800000
_cell_angle_alpha                 90.0000000
_cell_angle_beta                  90.0000000
_cell_angle_gamma                 120.0000000
loop_
_atom_site_label
_atom_site_type_symbol
_atom_site_fract_x
_atom_site_fract_y
_atom_site_fract_z
_atom_site_U_iso_or_equiv
_atom_site_adp_type
_atom_site_occupancy
        N1          N  0.4371440  0.7185720  0.0000000    0.00000       Uiso       1.00
        N2          N  0.2814280  0.7185720  0.0000000    0.00000       Uiso       1.00
        N3          N  0.2814280  0.5628560  0.0000000    0.00000       Uiso       1.00
        O4          O  0.5538050  0.2769020  0.0000000    0.00000       Uiso       1.00
        O5          O  0.7230980  0.2769020  0.0000000    0.00000       Uiso       1.00
        O6          O  0.7230980  0.4461950  0.0000000    0.00000       Uiso       1.00
        C7          C  0.3856330  0.6143670  0.0000000    0.00000       Uiso       1.00
        B8          B  0.6118190  0.3881810  0.0000000    0.00000       Uiso       1.00
        C9          C  0.3856330  0.7712670  0.0000000    0.00000       Uiso       1.00
       B10          B  0.6118190  0.2236370  0.0000000    0.00000       Uiso       1.00
       C11          C  0.2287330  0.6143670  0.0000000    0.00000       Uiso       1.00
       B12          B  0.7763630  0.3881810  0.0000000    0.00000       Uiso       1.00
       C13          C  0.4427240  0.5572760  0.0000000    0.00000       Uiso       1.00
       C14          C  0.5513210  0.4486790  0.0000000    0.00000       Uiso       1.00
       C15          C  0.4427240  0.8854490  0.0000000    0.00000       Uiso       1.00
       C16          C  0.5513210  0.1026420  0.0000000    0.00000       Uiso       1.00
       C17          C  0.1145510  0.5572760  0.0000000    0.00000       Uiso       1.00
       C18          C  0.8973580  0.4486790  0.0000000    0.00000       Uiso       1.00
       C19          C  0.5508910  0.6103500  0.0000000    0.00000       Uiso       1.00
       C20          C  0.3896500  0.9405410  0.0000000    0.00000       Uiso       1.00
       C21          C  0.0594590  0.4491090  0.0000000    0.00000       Uiso       1.00
       C22          C  0.3896500  0.4491090  0.0000000    0.00000       Uiso       1.00
       C23          C  0.0594590  0.6103500  0.0000000    0.00000       Uiso       1.00
       C24          C  0.5508910  0.9405410  0.0000000    0.00000       Uiso       1.00
       C25          C  0.6046340  0.5566210  0.0000000    0.00000       Uiso       1.00
       C26          C  0.4433790  0.0480130  0.0000000    0.00000       Uiso       1.00
       C27          C  0.9519870  0.3953660  0.0000000    0.00000       Uiso       1.00
       C28          C  0.4433790  0.3953660  0.0000000    0.00000       Uiso       1.00
       C29          C  0.9519870  0.5566210  0.0000000    0.00000       Uiso       1.00
       C30          C  0.6046340  0.0480130  0.0000000    0.00000       Uiso       1.00
       H31          H  0.5938010  0.6935790  0.0000000    0.00000       Uiso       1.00
       H32          H  0.6879890  0.5993230  0.0000000    0.00000       Uiso       1.00
       H33          H  0.3064210  0.9002231  0.0000000    0.00000       Uiso       1.00
       H34          H  0.4006770  0.0886660  0.0000000    0.00000       Uiso       1.00
       H35          H  0.0997770  0.4061990  0.0000000    0.00000       Uiso       1.00
       H36          H  0.9113339  0.3120110  0.0000000    0.00000       Uiso       1.00
       H37          H  0.3064210  0.4061990  0.0000000    0.00000       Uiso       1.00
       H38          H  0.4006770  0.3120110  0.0000000    0.00000       Uiso       1.00
       H39          H  0.0997770  0.6935790  0.0000000    0.00000       Uiso       1.00
       H40          H  0.9113339  0.5993230  0.0000000    0.00000       Uiso       1.00
       H41          H  0.5938010  0.9002231  0.0000000    0.00000       Uiso       1.00
       H42          H  0.6879890  0.0886660  0.0000000    0.00000       Uiso       1.00
